726

Fe    0.0053    5.2795    10.1361
Fe    0.0053    10.5720    8.7714
Fe    0.0053    15.8645    7.4067
Fe    0.0053    15.8645    18.8987
Fe    0.0108    2.2320    9.2184
Fe    0.0108    7.5245    7.8537
Fe    0.0108    7.5245    19.3457
Fe    0.0108    12.8170    6.4890
Fe    0.0108    12.8170    17.9810
Fe    0.0108    18.1095    5.1243
Fe    0.0108    18.1095    16.6163
Fe    0.0403    3.7964    4.0400
Fe    0.0403    3.7964    15.5320
Fe    0.0403    9.0889    2.6753
Fe    0.0403    9.0889    14.1673
Fe    0.0403    14.3814    1.3106
Fe    0.0403    14.3814    12.8026
Fe    0.0403    19.6739    11.4379
Fe    2.9810    4.7541    0.3729
Fe    2.9810    4.7541    11.8649
Fe    2.9810    10.0466    10.5002
Fe    2.9810    15.3391    9.1356
Fe    2.9939    3.9786    8.6317
Fe    2.9939    9.2711    7.2670
Fe    2.9939    9.2711    18.7590
Fe    2.9939    14.5636    5.9023
Fe    2.9939    14.5636    17.3943
Fe    2.9939    19.8561    4.5376
Fe    2.9939    19.8561    16.0296
Fe    3.0367    2.4795    2.8287
Fe    3.0367    2.4795    14.3207
Fe    3.0367    7.7720    1.4640
Fe    3.0367    7.7720    12.9560
Fe    3.0367    13.0645    0.0993
Fe    3.0367    13.0645    11.5913
Fe    3.0367    18.3570    10.2266
Fe    3.0484    0.7478    7.4552
Fe    3.0484    0.7478    18.9472
Fe    3.0484    6.0403    6.0905
Fe    3.0484    6.0403    17.5825
Fe    3.0484    11.3328    4.7258
Fe    3.0484    11.3328    16.2178
Fe    3.0484    16.6253    3.3611
Fe    3.0484    16.6253    14.8532
Fe    5.3283    0.8183    3.2248
Fe    5.3283    0.8183    14.7168
Fe    5.3283    6.1108    1.8601
Fe    5.3283    6.1108    13.3521
Fe    5.3283    11.4033    0.4954
Fe    5.3283    11.4033    11.9874
Fe    5.3283    16.6958    10.6227
Fe    5.3436    4.3731    6.4340
Fe    5.3436    4.3731    17.9260
Fe    5.3436    9.6656    5.0693
Fe    5.3436    9.6656    16.5613
Fe    5.3436    14.9581    3.7046
Fe    5.3436    14.9581    15.1966
Fe    5.3968    2.8636    0.6614
Fe    5.3968    2.8636    12.1534
Fe    5.3968    8.1561    10.7887
Fe    5.3968    13.4486    9.4240
Fe    5.3968    18.7411    8.0593
Fe    5.3968    18.7411    19.5514
Fe    5.4022    2.0947    8.9296
Fe    5.4022    7.3872    7.5649
Fe    5.4022    7.3872    19.0569
Fe    5.4022    12.6797    6.2002
Fe    5.4022    12.6797    17.6922
Fe    5.4022    17.9722    4.8355
Fe    5.4022    17.9722    16.3275
Fe    8.3583    4.6077    0.0920
Fe    8.3583    4.6077    11.5841
Fe    8.3583    9.9002    10.2194
Fe    8.3583    15.1927    8.8547
Fe    8.3621    3.0359    5.2535
Fe    8.3621    3.0359    16.7455
Fe    8.3621    8.3284    3.8888
Fe    8.3621    8.3284    15.3808
Fe    8.3621    13.6209    2.5241
Fe    8.3621    13.6209    14.0161
Fe    8.3621    18.9134    1.1594
Fe    8.3621    18.9134    12.6514
Fe    8.3724    1.5375    10.6613
Fe    8.3724    6.8300    9.2966
Fe    8.3724    12.1225    7.9319
Fe    8.3724    12.1225    19.4240
Fe    8.3724    17.4150    6.5672
Fe    8.3724    17.4150    18.0593
Fe    8.3780    3.7826    8.3789
Fe    8.3780    3.7826    19.8710
Fe    8.3780    9.0751    7.0142
Fe    8.3780    9.0751    18.5063
Fe    8.3780    14.3676    5.6495
Fe    8.3780    14.3676    17.1416
Fe    8.3780    19.6601    4.2848
Fe    8.3780    19.6601    15.7769
Fe    8.4075    0.0545    4.5652
Fe    8.4075    0.0545    16.0572
Fe    8.4075    5.3470    3.2005
Fe    8.4075    5.3470    14.6925
Fe    8.4075    10.6395    1.8358
Fe    8.4075    10.6395    13.3278
Fe    8.4075    15.9320    0.4711
Fe    8.4075    15.9320    11.9631
Fe    11.3482    1.0121    0.8981
Fe    11.3482    1.0121    12.3902
Fe    11.3482    6.3046    11.0255
Fe    11.3482    11.5971    9.6608
Fe    11.3482    16.8896    8.2961
Fe    11.3482    16.8896    19.7881
Fe    11.3611    0.2366    9.1569
Fe    11.3611    5.5291    7.7922
Fe    11.3611    5.5291    19.2842
Fe    11.3611    10.8216    6.4275
Fe    11.3611    10.8216    17.9195
Fe    11.3611    16.1141    5.0628
Fe    11.3611    16.1141    16.5548
Fe    11.4038    4.0300    1.9892
Fe    11.4038    4.0300    13.4812
Fe    11.4038    9.3225    0.6245
Fe    11.4038    9.3225    12.1165
Fe    11.4038    14.6150    10.7519
Fe    11.4038    19.9075    9.3872
Fe    11.4156    2.2984    6.6157
Fe    11.4156    2.2984    18.1078
Fe    11.4156    7.5909    5.2510
Fe    11.4156    7.5909    16.7431
Fe    11.4156    12.8834    3.8863
Fe    11.4156    12.8834    15.3784
Fe    11.4156    18.1759    2.5216
Fe    11.4156    18.1759    14.0137
Fe    13.6955    2.3688    2.3853
Fe    13.6955    2.3688    13.8774
Fe    13.6955    7.6613    1.0206
Fe    13.6955    7.6613    12.5127
Fe    13.6955    12.9538    11.1480
Fe    13.6955    18.2463    9.7833
Fe    13.7108    0.6312    6.9592
Fe    13.7108    0.6312    18.4513
Fe    13.7108    5.9237    5.5945
Fe    13.7108    5.9237    17.0866
Fe    13.7108    11.2162    4.2298
Fe    13.7108    11.2162    15.7219
Fe    13.7108    16.5087    2.8651
Fe    13.7108    16.5087    14.3572
Fe    13.7640    4.4142    11.3140
Fe    13.7640    9.7067    9.9493
Fe    13.7640    14.9992    8.5846
Fe    13.7694    3.6453    8.0901
Fe    13.7694    3.6453    19.5821
Fe    13.7694    8.9378    6.7254
Fe    13.7694    8.9378    18.2174
Fe    13.7694    14.2303    5.3607
Fe    13.7694    14.2303    16.8527
Fe    13.7694    19.5228    3.9960
Fe    13.7694    19.5228    15.4880
Fe    16.7255    0.8658    0.6173
Fe    16.7255    0.8658    12.1093
Fe    16.7255    6.1583    10.7446
Fe    16.7255    11.4508    9.3799
Fe    16.7255    16.7433    8.0152
Fe    16.7255    16.7433    19.5072
Fe    16.7293    4.5864    4.4140
Fe    16.7293    4.5864    15.9060
Fe    16.7293    9.8789    3.0493
Fe    16.7293    9.8789    14.5413
Fe    16.7293    15.1714    1.6846
Fe    16.7293    15.1714    13.1766
Fe    16.7396    3.0881    9.8219
Fe    16.7396    8.3806    8.4572
Fe    16.7396    8.3806    19.9492
Fe    16.7396    13.6731    7.0925
Fe    16.7396    13.6731    18.5845
Fe    16.7396    18.9656    5.7278
Fe    16.7396    18.9656    17.2198
Fe    16.7452    0.0406    8.9042
Fe    16.7452    5.3331    7.5395
Fe    16.7452    5.3331    19.0315
Fe    16.7452    10.6256    6.1748
Fe    16.7452    10.6256    17.6668
Fe    16.7452    15.9181    4.8101
Fe    16.7452    15.9181    16.3021
Fe    16.7747    1.6050    3.7257
Fe    16.7747    1.6050    15.2177
Fe    16.7747    6.8975    2.3610
Fe    16.7747    6.8975    13.8530
Fe    16.7747    12.1900    0.9963
Fe    16.7747    12.1900    12.4883
Fe    16.7747    17.4825    11.1236
Fe    19.7154    2.5627    0.0587
Fe    19.7154    2.5627    11.5507
Fe    19.7154    7.8552    10.1860
Fe    19.7154    13.1477    8.8213
Fe    19.7154    18.4402    7.4566
Fe    19.7154    18.4402    18.9486
Fe    19.7283    1.7872    8.3174
Fe    19.7283    1.7872    19.8095
Fe    19.7283    7.0797    6.9527
Fe    19.7283    7.0797    18.4448
Fe    19.7283    12.3722    5.5880
Fe    19.7283    12.3722    17.0801
Fe    19.7283    17.6647    4.2233
Fe    19.7283    17.6647    15.7154
Fe    19.7710    0.2881    2.5144
Fe    19.7710    0.2881    14.0065
Fe    19.7710    5.5806    1.1497
Fe    19.7710    5.5806    12.6418
Fe    19.7710    10.8731    11.2771
Fe    19.7710    16.1656    9.9124
Fe    19.7827    3.8489    5.7763
Fe    19.7827    3.8489    17.2683
Fe    19.7827    9.1414    4.4116
Fe    19.7827    9.1414    15.9036
Fe    19.7827    14.4339    3.0469
Fe    19.7827    14.4339    14.5389
Fe    19.7827    19.7264    1.6822
Fe    19.7827    19.7264    13.1742
O    0.8507    0.1912    4.7648
O    0.8507    0.1912    16.2568
O    0.8507    5.4837    3.4001
O    0.8507    5.4837    14.8921
O    0.8507    10.7762    2.0354
O    0.8507    10.7762    13.5274
O    0.8507    16.0687    0.6707
O    0.8507    16.0687    12.1627
O    0.8684    3.2298    5.7604
O    0.8684    3.2298    17.2524
O    0.8684    8.5223    4.3957
O    0.8684    8.5223    15.8877
O    0.8684    13.8148    3.0310
O    0.8684    13.8148    14.5230
O    0.8684    19.1073    1.6663
O    0.8684    19.1073    13.1583
O    0.9515    4.8616    0.4747
O    0.9515    4.8616    11.9668
O    0.9515    10.1541    10.6021
O    0.9515    15.4466    9.2374
O    1.0327    1.7985    10.9990
O    1.0327    7.0910    9.6343
O    1.0327    12.3835    8.2696
O    1.0327    12.3835    19.7617
O    1.0327    17.6760    6.9049
O    1.0327    17.6760    18.3970
O    1.0578    3.9986    8.6111
O    1.0578    9.2911    7.2464
O    1.0578    9.2911    18.7384
O    1.0578    14.5836    5.8817
O    1.0578    14.5836    17.3737
O    1.0578    19.8761    4.5170
O    1.0578    19.8761    16.0090
O    1.1032    2.3823    2.6233
O    1.1032    2.3823    14.1153
O    1.1032    7.6748    1.2586
O    1.1032    7.6748    12.7506
O    1.1032    12.9673    11.3859
O    1.1032    18.2598    10.0212
O    1.1440    0.8373    7.8990
O    1.1440    0.8373    19.3910
O    1.1440    6.1298    6.5343
O    1.1440    6.1298    18.0263
O    1.1440    11.4223    5.1696
O    1.1440    11.4223    16.6616
O    1.1440    16.7148    3.8049
O    1.1440    16.7148    15.2969
O    2.9118    3.8724    3.6623
O    2.9118    3.8724    15.1543
O    2.9118    9.1649    2.2976
O    2.9118    9.1649    13.7896
O    2.9118    14.4574    0.9329
O    2.9118    14.4574    12.4249
O    2.9118    19.7499    11.0602
O    2.9487    1.6244    6.0819
O    2.9487    1.6244    17.5739
O    2.9487    6.9169    4.7172
O    2.9487    6.9169    16.2092
O    2.9487    12.2094    3.3525
O    2.9487    12.2094    14.8445
O    2.9487    17.5019    1.9878
O    2.9487    17.5019    13.4798
O    2.9911    0.1832    11.2048
O    2.9911    5.4757    9.8401
O    2.9911    10.7682    8.4754
O    2.9911    10.7682    19.9674
O    2.9911    16.0607    7.1107
O    2.9911    16.0607    18.6027
O    3.1716    2.2074    9.3848
O    3.1716    7.4999    8.0201
O    3.1716    7.4999    19.5121
O    3.1716    12.7924    6.6554
O    3.1716    12.7924    18.1474
O    3.1716    18.0849    5.2907
O    3.1716    18.0849    16.7827
O    3.2244    2.7373    0.5052
O    3.2244    2.7373    11.9972
O    3.2244    8.0298    10.6325
O    3.2244    13.3223    9.2678
O    3.2244    18.6148    7.9031
O    3.2244    18.6148    19.3951
O    3.4225    4.3493    6.8534
O    3.4225    4.3493    18.3454
O    3.4225    9.6418    5.4887
O    3.4225    9.6418    16.9807
O    3.4225    14.9343    4.1240
O    3.4225    14.9343    15.6160
O    3.4653    0.7061    3.0631
O    3.4653    0.7061    14.5552
O    3.4653    5.9986    1.6984
O    3.4653    5.9986    13.1905
O    3.4653    11.2911    0.3337
O    3.4653    11.2911    11.8258
O    3.4653    16.5836    10.4611
O    4.9177    0.8585    7.5954
O    4.9177    0.8585    19.0875
O    4.9177    6.1510    6.2307
O    4.9177    6.1510    17.7228
O    4.9177    11.4435    4.8660
O    4.9177    11.4435    16.3581
O    4.9177    16.7360    3.5013
O    4.9177    16.7360    14.9934
O    4.9640    2.4986    2.4382
O    4.9640    2.4986    13.9303
O    4.9640    7.7911    1.0735
O    4.9640    7.7911    12.5656
O    4.9640    13.0836    11.2009
O    4.9640    18.3761    9.8362
O    5.1426    4.1042    8.7906
O    5.1426    9.3967    7.4259
O    5.1426    9.3967    18.9180
O    5.1426    14.6892    6.0612
O    5.1426    14.6892    17.5533
O    5.1426    19.9817    4.6965
O    5.1426    19.9817    16.1886
O    5.2029    4.6306    11.3998
O    5.2029    9.9231    10.0351
O    5.2029    15.2156    8.6704
O    5.3847    1.3666    10.9462
O    5.3847    6.6591    9.5815
O    5.3847    11.9516    8.2168
O    5.3847    11.9516    19.7088
O    5.3847    17.2441    6.8521
O    5.3847    17.2441    18.3441
O    5.4321    5.1684    3.1852
O    5.4321    5.1684    14.6772
O    5.4321    10.4609    1.8205
O    5.4321    10.4609    13.3125
O    5.4321    15.7534    0.4558
O    5.4321    15.7534    11.9478
O    5.4647    2.9774    5.6036
O    5.4647    2.9774    17.0956
O    5.4647    8.2699    4.2389
O    5.4647    8.2699    15.7309
O    5.4647    13.5624    2.8742
O    5.4647    13.5624    14.3662
O    5.4647    18.8549    1.5095
O    5.4647    18.8549    13.0015
O    7.2359    0.7120    2.7535
O    7.2359    0.7120    14.2456
O    7.2359    6.0045    1.3888
O    7.2359    6.0045    12.8809
O    7.2359    11.2970    0.0241
O    7.2359    11.2970    11.5162
O    7.2359    16.5895    10.1515
O    7.2775    4.4608    6.6612
O    7.2775    4.4608    18.1532
O    7.2775    9.7533    5.2965
O    7.2775    9.7533    16.7885
O    7.2775    15.0458    3.9318
O    7.2775    15.0458    15.4238
O    7.3229    2.8319    0.6785
O    7.3229    2.8319    12.1705
O    7.3229    8.1244    10.8058
O    7.3229    13.4169    9.4411
O    7.3229    18.7094    8.0764
O    7.3229    18.7094    19.5685
O    7.3373    5.0453    9.7976
O    7.3373    10.3378    8.4329
O    7.3373    10.3378    19.9249
O    7.3373    15.6303    7.0682
O    7.3373    15.6303    18.5602
O    7.4322    1.9826    8.8176
O    7.4322    7.2751    7.4529
O    7.4322    7.2751    18.9449
O    7.4322    12.5676    6.0882
O    7.4322    12.5676    17.5802
O    7.4322    17.8601    4.7235
O    7.4322    17.8601    16.2155
O    7.5239    3.6102    3.5382
O    7.5239    3.6102    15.0302
O    7.5239    8.9027    2.1735
O    7.5239    8.9027    13.6655
O    7.5239    14.1952    0.8088
O    7.5239    14.1952    12.3008
O    7.5239    19.4877    10.9361
O    7.5329    1.3519    5.8898
O    7.5329    1.3519    17.3819
O    7.5329    6.6444    4.5251
O    7.5329    6.6444    16.0172
O    7.5329    11.9369    3.1604
O    7.5329    11.9369    14.6525
O    7.5329    17.2294    1.7957
O    7.5329    17.2294    13.2878
O    9.2178    1.7417    3.9253
O    9.2178    1.7417    15.4173
O    9.2178    7.0342    2.5606
O    9.2178    7.0342    14.0526
O    9.2178    12.3267    1.1959
O    9.2178    12.3267    12.6879
O    9.2178    17.6192    11.3232
O    9.2356    4.7803    4.9209
O    9.2356    4.7803    16.4129
O    9.2356    10.0728    3.5562
O    9.2356    10.0728    15.0482
O    9.2356    15.3653    2.1915
O    9.2356    15.3653    13.6835
O    9.3187    1.1196    1.0000
O    9.3187    1.1196    12.4920
O    9.3187    6.4121    11.1273
O    9.3187    11.7046    9.7626
O    9.3187    16.9971    8.3979
O    9.3187    16.9971    19.8899
O    9.3998    3.3490    10.1596
O    9.3998    8.6415    8.7949
O    9.3998    13.9340    7.4302
O    9.3998    13.9340    18.9222
O    9.3998    19.2265    6.0655
O    9.3998    19.2265    17.5575
O    9.4250    0.2567    9.1363
O    9.4250    5.5492    7.7716
O    9.4250    5.5492    19.2636
O    9.4250    10.8417    6.4069
O    9.4250    10.8417    17.8989
O    9.4250    16.1342    5.0422
O    9.4250    16.1342    16.5342
O    9.4704    3.9328    1.7838
O    9.4704    3.9328    13.2758
O    9.4704    9.2253    0.4191
O    9.4704    9.2253    11.9111
O    9.4704    14.5178    10.5464
O    9.4704    19.8103    9.1817
O    9.5112    2.3878    7.0595
O    9.5112    2.3878    18.5515
O    9.5112    7.6803    5.6948
O    9.5112    7.6803    17.1868
O    9.5112    12.9728    4.3301
O    9.5112    12.9728    15.8221
O    9.5112    18.2653    2.9654
O    9.5112    18.2653    14.4574
O    11.2790    0.1304    4.1875
O    11.2790    0.1304    15.6795
O    11.2790    5.4229    2.8228
O    11.2790    5.4229    14.3148
O    11.2790    10.7154    1.4581
O    11.2790    10.7154    12.9501
O    11.2790    16.0079    0.0934
O    11.2790    16.0079    11.5854
O    11.3159    3.1750    5.2424
O    11.3159    3.1750    16.7344
O    11.3159    8.4675    3.8777
O    11.3159    8.4675    15.3697
O    11.3159    13.7600    2.5130
O    11.3159    13.7600    14.0050
O    11.3159    19.0525    1.1483
O    11.3159    19.0525    12.6403
O    11.3583    1.7338    10.3653
O    11.3583    7.0263    9.0006
O    11.3583    12.3188    7.6359
O    11.3583    12.3188    19.1279
O    11.3583    17.6113    6.2712
O    11.3583    17.6113    17.7632
O    11.5388    3.7579    8.5453
O    11.5388    9.0504    7.1806
O    11.5388    9.0504    18.6726
O    11.5388    14.3429    5.8159
O    11.5388    14.3429    17.3079
O    11.5388    19.6354    4.4512
O    11.5388    19.6354    15.9432
O    11.5916    4.2878    11.1577
O    11.5916    9.5803    9.7930
O    11.5916    14.8728    8.4283
O    11.5916    14.8728    19.9204
O    11.7897    0.6074    7.3786
O    11.7897    0.6074    18.8706
O    11.7897    5.8999    6.0139
O    11.7897    5.8999    17.5059
O    11.7897    11.1924    4.6492
O    11.7897    11.1924    16.1412
O    11.7897    16.4849    3.2845
O    11.7897    16.4849    14.7765
O    11.8324    2.2567    2.2237
O    11.8324    2.2567    13.7157
O    11.8324    7.5492    0.8590
O    11.8324    7.5492    12.3510
O    11.8324    12.8417    10.9863
O    11.8324    18.1342    9.6216
O    13.2849    2.4090    6.7559
O    13.2849    2.4090    18.2480
O    13.2849    7.7015    5.3912
O    13.2849    7.7015    16.8833
O    13.2849    12.9940    4.0266
O    13.2849    12.9940    15.5186
O    13.2849    18.2865    2.6619
O    13.2849    18.2865    14.1539
O    13.3311    4.0491    1.5987
O    13.3311    4.0491    13.0908
O    13.3311    9.3416    0.2340
O    13.3311    9.3416    11.7261
O    13.3311    14.6341    10.3614
O    13.3311    19.9266    8.9967
O    13.5097    0.3622    9.3158
O    13.5097    5.6547    7.9511
O    13.5097    5.6547    19.4432
O    13.5097    10.9472    6.5864
O    13.5097    10.9472    18.0785
O    13.5097    16.2397    5.2217
O    13.5097    16.2397    16.7138
O    13.5701    0.8886    0.4330
O    13.5701    0.8886    11.9250
O    13.5701    6.1811    10.5603
O    13.5701    11.4736    9.1956
O    13.5701    16.7661    7.8309
O    13.5701    16.7661    19.3229
O    13.7519    2.9172    10.1067
O    13.7519    8.2097    8.7420
O    13.7519    13.5022    7.3773
O    13.7519    13.5022    18.8693
O    13.7519    18.7947    6.0126
O    13.7519    18.7947    17.5047
O    13.7993    1.4264    3.7104
O    13.7993    1.4264    15.2024
O    13.7993    6.7189    2.3457
O    13.7993    6.7189    13.8378
O    13.7993    12.0114    0.9810
O    13.7993    12.0114    12.4731
O    13.7993    17.3039    11.1084
O    13.8319    4.5280    4.7641
O    13.8319    4.5280    16.2562
O    13.8319    9.8205    3.3994
O    13.8319    9.8205    14.8915
O    13.8319    15.1130    2.0347
O    13.8319    15.1130    13.5268
O    15.6031    2.2625    1.9141
O    15.6031    2.2625    13.4061
O    15.6031    7.5550    0.5494
O    15.6031    7.5550    12.0414
O    15.6031    12.8475    10.6767
O    15.6031    18.1400    9.3120
O    15.6447    0.7188    7.1864
O    15.6447    0.7188    18.6784
O    15.6447    6.0113    5.8217
O    15.6447    6.0113    17.3137
O    15.6447    11.3038    4.4570
O    15.6447    11.3038    15.9490
O    15.6447    16.5963    3.0923
O    15.6447    16.5963    14.5844
O    15.6901    4.3824    11.3311
O    15.6901    9.6749    9.9664
O    15.6901    14.9674    8.6017
O    15.7045    1.3034    10.3228
O    15.7045    6.5959    8.9581
O    15.7045    11.8884    7.5934
O    15.7045    11.8884    19.0854
O    15.7045    17.1809    6.2287
O    15.7045    17.1809    17.7207
O    15.7994    3.5331    7.9781
O    15.7994    3.5331    19.4701
O    15.7994    8.8256    6.6134
O    15.7994    8.8256    18.1054
O    15.7994    14.1181    5.2487
O    15.7994    14.1181    16.7407
O    15.7994    19.4106    3.8840
O    15.7994    19.4106    15.3760
O    15.8911    5.1608    2.6987
O    15.8911    5.1608    14.1907
O    15.8911    10.4533    1.3340
O    15.8911    10.4533    12.8260
O    15.8911    15.7458    11.4613
O    15.9001    2.9025    5.0504
O    15.9001    2.9025    16.5424
O    15.9001    8.1950    3.6857
O    15.9001    8.1950    15.1777
O    15.9001    13.4875    2.3210
O    15.9001    13.4875    13.8130
O    15.9001    18.7800    0.9563
O    15.9001    18.7800    12.4483
O    17.5850    3.2922    3.0858
O    17.5850    3.2922    14.5779
O    17.5850    8.5847    1.7211
O    17.5850    8.5847    13.2132
O    17.5850    13.8772    0.3564
O    17.5850    13.8772    11.8485
O    17.5850    19.1697    10.4838
O    17.6027    1.0384    5.4461
O    17.6027    1.0384    16.9381
O    17.6027    6.3309    4.0814
O    17.6027    6.3309    15.5734
O    17.6027    11.6234    2.7167
O    17.6027    11.6234    14.2087
O    17.6027    16.9159    1.3520
O    17.6027    16.9159    12.8440
O    17.6859    2.6702    0.1605
O    17.6859    2.6702    11.6525
O    17.6859    7.9627    10.2878
O    17.6859    13.2552    8.9231
O    17.6859    18.5477    7.5584
O    17.6859    18.5477    19.0504
O    17.7670    4.8995    9.3201
O    17.7670    10.1920    7.9554
O    17.7670    10.1920    19.4474
O    17.7670    15.4845    6.5907
O    17.7670    15.4845    18.0827
O    17.7922    1.8072    8.2968
O    17.7922    1.8072    19.7888
O    17.7922    7.0997    6.9321
O    17.7922    7.0997    18.4241
O    17.7922    12.3922    5.5674
O    17.7922    12.3922    17.0594
O    17.7922    17.6847    4.2027
O    17.7922    17.6847    15.6947
O    17.8376    0.1908    2.3090
O    17.8376    0.1908    13.8011
O    17.8376    5.4833    0.9443
O    17.8376    5.4833    12.4364
O    17.8376    10.7758    11.0717
O    17.8376    16.0683    9.7070
O    17.8784    3.9383    6.2200
O    17.8784    3.9383    17.7121
O    17.8784    9.2308    4.8553
O    17.8784    9.2308    16.3474
O    17.8784    14.5233    3.4906
O    17.8784    14.5233    14.9827
O    17.8784    19.8158    2.1259
O    17.8784    19.8158    13.6180
O    19.6462    1.6810    3.3480
O    19.6462    1.6810    14.8400
O    19.6462    6.9735    1.9833
O    19.6462    6.9735    13.4753
O    19.6462    12.2660    0.6186
O    19.6462    12.2660    12.1106
O    19.6462    17.5585    10.7459
O    19.6831    4.7255    4.4029
O    19.6831    4.7255    15.8949
O    19.6831    10.0180    3.0382
O    19.6831    10.0180    14.5302
O    19.6831    15.3105    1.6735
O    19.6831    15.3105    13.1655
O    19.7254    3.2843    9.5258
O    19.7254    8.5768    8.1611
O    19.7254    8.5768    19.6532
O    19.7254    13.8693    6.7964
O    19.7254    13.8693    18.2885
O    19.7254    19.1618    5.4317
O    19.7254    19.1618    16.9238
O    19.9060    0.0159    9.0705
O    19.9060    5.3084    7.7058
O    19.9060    5.3084    19.1979
O    19.9060    10.6009    6.3411
O    19.9060    10.6009    17.8332
O    19.9060    15.8934    4.9764
O    19.9060    15.8934    16.4685
O    19.9588    0.5459    0.1909
O    19.9588    0.5459    11.6829
O    19.9588    5.8384    10.3183
O    19.9588    11.1309    8.9536
O    19.9588    16.4234    7.5889
O    19.9588    16.4234    19.0809
Sb    0.0271    4.5252    7.0052
Sb    0.0271    4.5252    18.4972
Sb    0.0271    9.8177    5.6405
Sb    0.0271    9.8177    17.1325
Sb    0.0271    15.1102    4.2758
Sb    0.0271    15.1102    15.7678
Sb    8.3562    2.3162    2.2854
Sb    8.3562    2.3162    13.7775
Sb    8.3562    7.6087    0.9207
Sb    8.3562    7.6087    12.4128
Sb    8.3562    12.9012    11.0481
Sb    8.3562    18.1937    9.6834
Sb    8.3943    0.7832    7.5304
Sb    8.3943    0.7832    19.0224
Sb    8.3943    6.0757    6.1657
Sb    8.3943    6.0757    17.6577
Sb    8.3943    11.3682    4.8010
Sb    8.3943    11.3682    16.2930
Sb    8.3943    16.6607    3.4363
Sb    8.3943    16.6607    14.9283
Sb    16.7234    3.8668    1.4459
Sb    16.7234    3.8668    12.9380
Sb    16.7234    9.1593    0.0812
Sb    16.7234    9.1593    11.5733
Sb    16.7234    14.4518    10.2086
Sb    16.7234    19.7443    8.8439
Sb    16.7615    2.3338    6.6909
Sb    16.7615    2.3338    18.1829
Sb    16.7615    7.6263    5.3262
Sb    16.7615    7.6263    16.8182
Sb    16.7615    12.9188    3.9615
Sb    16.7615    12.9188    15.4535
Sb    16.7615    18.2113    2.5968
Sb    16.7615    18.2113    14.0888
Si    2.6316    1.7175    10.8998
Si    2.6316    7.0100    9.5351
Si    2.6316    12.3025    8.1704
Si    2.6316    12.3025    19.6625
Si    2.6316    17.5950    6.8057
Si    2.6316    17.5950    18.2978
Si    5.7424    5.1226    9.8844
Si    5.7424    10.4151    8.5197
Si    5.7424    15.7076    7.1550
Si    5.7424    15.7076    18.6470
Si    10.9988    3.2680    10.0604
Si    10.9988    8.5605    8.6957
Si    10.9988    13.8530    7.3310
Si    10.9988    13.8530    18.8230
Si    10.9988    19.1455    5.9663
Si    10.9988    19.1455    17.4583
Si    14.1096    1.3807    10.4096
Si    14.1096    6.6732    9.0449
Si    14.1096    11.9657    7.6802
Si    14.1096    11.9657    19.1722
Si    14.1096    17.2582    6.3155
Si    14.1096    17.2582    17.8075
Si    19.3659    4.8186    9.2209
Si    19.3659    10.1111    7.8562
Si    19.3659    10.1111    19.3482
Si    19.3659    15.4036    6.4915
Si    19.3659    15.4036    17.9835
